*
*|DSPF 1.3
*|DESIGN SC12T_INVX8_CSC20R
*|DATE "Wed Apr 20 15:25:06 2022"
*|VENDOR "Synopsys"
*|PROGRAM "StarRC"
*|VERSION "R-2020.09-SP1"
*|DIVIDER |
*|DELIMITER :
**FORMAT SPF
*

** COMMENTS

** OPERATING_TEMPERATURE 25
** DENSITY_OUTSIDE_BLOCK 0
** GLOBAL_TEMPERATURE 25
** 
** TCAD_GRD_FILE /tool/gde/pdk/released/22FDX-EXT/V1.0_3.1/PEX/StarRC/10M_2Mx_6Cx_2Ix_LBthick/22fdsoi_10M_2Mx_6Cx_2Ix_LBthick_nominal_detailed.nxtgrd
**   TCAD_TIME_STAMP Tue Sep 22 16:18:44 2020
**   TCADGRD_VERSION 84

.SUBCKT SC12T_INVX8_CSC20R Z A VSS VDD VPW_N VNW_P

.model resStar R Tref=25

*|GROUND_NET VSS

*LAYER_MAP

*0 SUBSTRATE
*1 LB    ITF=LB
*2 LB_lvsres    ITF=LB
*3 LB_fill_layers    ITF=LB
*4 ind_port_1_p1    ITF=LB
*5 ind_port_1_p2    ITF=LB
*6 ind2_port_1_p1    ITF=LB
*7 ind2_port_1_p2    ITF=LB
*8 LB_ind    ITF=LB
*9 LB_cpwg_center    ITF=LB
*10 LB_shield_cpwg    ITF=LB
*11 LB_cpw_center    ITF=LB
*12 LB_shield_cpw    ITF=LB
*13 LB_msl_center    ITF=LB
*14 LB_cpwg_center_p1    ITF=LB
*15 LB_cpwg_center_p2    ITF=LB
*16 LB_cpwg_center_p3    ITF=LB
*17 LB_cpwg_center_p4    ITF=LB
*18 LB_cpw_center_p1    ITF=LB
*19 LB_cpw_center_p2    ITF=LB
*20 LB_cpw_center_p3    ITF=LB
*21 LB_cpw_center_p4    ITF=LB
*22 LB_msl_center_p1    ITF=LB
*23 LB_msl_center_p2    ITF=LB
*24 LB_msl_center_p3    ITF=LB
*25 LB_msl_center_p4    ITF=LB
*26 IB    ITF=IB
*27 IB_lvsres    ITF=IB
*28 IB_fill_layers    ITF=IB
*29 IB_ind    ITF=IB
*30 ind_port_2_p1    ITF=IB
*31 ind_port_2_p2    ITF=IB
*32 ind2_port_2_p1    ITF=IB
*33 ind2_port_2_p2    ITF=IB
*34 IB_msl_center    ITF=IB
*35 IB_cpwg_center    ITF=IB
*36 IB_shield_cpwg    ITF=IB
*37 IB_cpw_center    ITF=IB
*38 IB_shield_cpw    ITF=IB
*39 IB_msl_center_p1    ITF=IB
*40 IB_msl_center_p2    ITF=IB
*41 IB_msl_center_p3    ITF=IB
*42 IB_msl_center_p4    ITF=IB
*43 IB_cpwg_center_p1    ITF=IB
*44 IB_cpwg_center_p2    ITF=IB
*45 IB_cpwg_center_p3    ITF=IB
*46 IB_cpwg_center_p4    ITF=IB
*47 IB_cpw_center_p1    ITF=IB
*48 IB_cpw_center_p2    ITF=IB
*49 IB_cpw_center_p3    ITF=IB
*50 IB_cpw_center_p4    ITF=IB
*51 IB_stubRadial_center_p1    ITF=IB
*52 IB_stubRadial_center_p2    ITF=IB
*53 IB_stubRadial_center    ITF=IB
*54 IB_mslStep_center_p1    ITF=IB
*55 IB_mslStep_center_p2    ITF=IB
*56 IB_mslStep_center    ITF=IB
*57 IB_shield_stubShort    ITF=IB
*58 IB_stubShort_center_p1    ITF=IB
*59 IB_stubShort_center_p2    ITF=IB
*60 IB_shield_fixed    ITF=IB
*61 IB_fixed_center_p1    ITF=IB
*62 IB_fixed_center_p2    ITF=IB
*63 IB_fixed_center_p3    ITF=IB
*64 IB_fixed_center    ITF=IB
*65 IA    ITF=IA
*66 IA_lvsres    ITF=IA
*67 IA_fill_layers    ITF=IA
*68 backnode_real    ITF=IA
*69 C6    ITF=C6
*70 C6_lvsres    ITF=C6
*71 C6_fill_layers    ITF=C6
*72 C6_vncap    ITF=C6
*73 C5    ITF=C5
*74 C5_lvsres    ITF=C5
*75 C5_fill_layers    ITF=C5
*76 C5_vncap    ITF=C5
*77 C4    ITF=C4
*78 C4_lvsres    ITF=C4
*79 C4_fill_layers    ITF=C4
*80 C4_vncap    ITF=C4
*81 C3    ITF=C3
*82 C3_lvsres    ITF=C3
*83 C3_fill_layers    ITF=C3
*84 C3_vncap    ITF=C3
*85 C2    ITF=C2
*86 C2_lvsres    ITF=C2
*87 C2_fill_layers    ITF=C2
*88 C2_vncap    ITF=C2
*89 C1    ITF=C1
*90 C1_lvsres    ITF=C1
*91 C1_fill_layers    ITF=C1
*92 C1_vncap    ITF=C1
*93 M2    ITF=M2
*94 M2_vncap    ITF=M2
*95 M2_lvsres    ITF=M2
*96 M2_fill_layers    ITF=M2
*97 ncap_M2_rf    ITF=M2
*98 pcap_M2_rf    ITF=M2
*99 M1_shield_fixed    ITF=M1
*100 M1    ITF=M1
*101 M1_ind    ITF=M1
*102 M1_lvsres    ITF=M1
*103 M1_fill_layers    ITF=M1
*104 M1_rf    ITF=M1
*105 M1_rf_cell    ITF=M1
*106 M1_vncap    ITF=M1
*107 opnpcres_rf_M1_series_conn    ITF=M1
*108 reopnpcres_rf_M1_series_conn    ITF=M1
*109 reopnarnpcres_rf_M1_series_conn    ITF=M1
*110 npcres_rf_M1_series_conn    ITF=M1
*111 bipolar_m1    ITF=M1
*112 ncap_M1    ITF=M1
*113 pcap_M1    ITF=M1
*114 efuse_anod    ITF=M1
*115 efuse_cath    ITF=M1
*116 M1_shield_msl    ITF=M1
*117 PC_fill_layers    ITF=PC
*118 PC_lvsres    ITF=PC
*119 pc_par    ITF=PC
*120 pc_mod1    ITF=PC
*121 pc_mod_rf    ITF=PC
*122 ngate    ITF=NGATE
*123 ldnfet_gate    ITF=NGATE
*124 ldnfet_gate_rf    ITF=NGATE
*125 ngate_rf    ITF=NGATE
*126 pgate    ITF=PGATE
*127 ldpfet_gate    ITF=PGATE
*128 ldpfet_gate_rf    ITF=PGATE
*129 pgate_rf    ITF=PGATE
*130 opnpcres_term    ITF=PC
*131 reopnpcres_term    ITF=PC
*132 reopnarnpcres_term    ITF=PC
*133 npcres_term    ITF=PC
*134 ncap_gate    ITF=NGATE
*135 ncapsoi_mmw_gate    ITF=NGATE
*136 pcap_gate    ITF=PGATE
*137 paradev_PCNterm    ITF=PC
*138 paradev_PCPterm    ITF=PC
*139 ngate_esd    ITF=NGATE
*140 pgate_esd    ITF=PGATE
*141 opnpcres_dev_nw    ITF=PC
*142 opnpcres_dev_pstw    ITF=PC
*143 npcres_dev_pstw    ITF=PC
*144 npcres_dev_nw    ITF=PC
*145 npcres_rf_rec_nw    ITF=PC
*146 npcres_rf_rec_pstw    ITF=PC
*147 reopnpcres_dev_nw    ITF=PC
*148 reopnpcres_dev_pstw    ITF=PC
*149 reopnpcres_rf_rec_nw    ITF=PC
*150 reopnpcres_rf_rec_pstw    ITF=PC
*151 reopnarnpcres_dev_nw    ITF=PC
*152 reopnarnpcres_dev_pstw    ITF=PC
*153 opnpcres_rf_term    ITF=PC
*154 opnpcres_rf_pc_term_dummies    ITF=PC
*155 reopnpcres_rf_term    ITF=PC
*156 reopnpcres_rf_pc_term_dummies    ITF=PC
*157 reopnarnpcres_rf_term    ITF=PC
*158 reopnarnpcres_rf_pc_term_dummies    ITF=PC
*159 npcres_rf_term    ITF=PC
*160 npcres_rf_pc_term_dummies    ITF=PC
*161 opnpcres_rf_dev_dummy_bad    ITF=PC
*162 reopnpcres_rf_dev_dummy_bad    ITF=PC
*163 reopnarnpcres_rf_dev_dummy_bad    ITF=PC
*164 npcres_rf_dev_dummy_bad    ITF=PC
*165 reopnarnpcres_rf_rec_nw    ITF=PC
*166 reopnarnpcres_rf_rec_pstw    ITF=PC
*167 opnpcres_rf_rec_nw    ITF=PC
*168 opnpcres_rf_rec_pstw    ITF=PC
*169 esdnsh_stk_dev_gate_D    ITF=NGATE
*170 esdnsh_stk_dev_gate_S    ITF=NGATE
*171 RX_fill_layers    ITF=NRX
*172 ldnfet_src    ITF=NRX
*173 ldnfet_drn    ITF=NRX
*174 nsd    ITF=NRX
*175 bxgate_bxnfet    ITF=PRX
*176 bxgate_bxpfet    ITF=NRX
*177 nsd_bx    ITF=NRX
*178 nsd_rf_source    ITF=NRX
*179 nsd_rf_drain    ITF=NRX
*180 psd    ITF=PRX
*181 psd_bx    ITF=PRX
*182 ldpfet_src    ITF=PRX
*183 ldpfet_drn    ITF=PRX
*184 schky_anod    ITF=NRX
*185 schky_cath    ITF=NRX
*186 psd_rf_drain    ITF=PRX
*187 psd_rf_source    ITF=PRX
*188 ptap    ITF=PRX
*189 ptap_rf    ITF=PRX
*190 ttap    ITF=PRX
*191 ttap_rf    ITF=PRX
*192 ntap    ITF=NRX
*193 ntap_rf    ITF=NRX
*194 ttap_rf_mmw    ITF=PRX
*195 ntap_rf_mmw    ITF=NRX
*196 ptd_ndiode    ITF=NRX
*197 ptd_pdiode    ITF=PRX
*198 butt_rxn    ITF=NRX
*199 butt_rxp    ITF=PRX
*200 opndres_dev    ITF=NRX
*201 opndres_term_hybrid    ITF=NRX
*202 opndressoi_dev    ITF=NRX
*203 opndressoi_term    ITF=NRX
*204 opndressoi_rf_term    ITF=NRX
*205 opndressoi_mmw_term    ITF=NRX
*206 opndressoi_mmw_dev    ITF=NRX
*207 opndressoi_rf_dev    ITF=NRX
*208 oppdres_dev    ITF=PRX
*209 nwres_term    ITF=NRX
*210 ncap_sd    ITF=NRX
*211 ncapsoi_mmw_sd    ITF=NRX
*212 pcap_sd    ITF=PRX
*213 esdndsx_bp_pin    ITF=PRX
*214 psd_esd    ITF=PRX
*215 opndres_term    ITF=NRX
*216 oppdres_term    ITF=PRX
*217 esdvpnp_base_pins    ITF=NRX
*218 esdvpnp_emit_pins    ITF=PRX
*219 esdlpnp_emitter    ITF=PRX
*220 vpnp_collector    ITF=PRX
*221 esdlpnp_collector    ITF=PRX
*222 esdlnpn_collector    ITF=NRX
*223 esdlnpn_emitter    ITF=NRX
*224 esdlnpn_base    ITF=PRX
*225 vpnp_base    ITF=NRX
*226 vpnp_emit    ITF=PRX
*227 vnpn_collector    ITF=NRX
*228 vnpn_base    ITF=PRX
*229 vnpn_emit    ITF=NRX
*230 esdndsx_rx_pins    ITF=NRX
*231 td_ndiode    ITF=NRX
*232 td_pdiode    ITF=PRX
*233 RX_efuse_term    ITF=NRX
*234 esdnsh_dev_D    ITF=NRX
*235 esdnsh_dev_S    ITF=NRX
*236 esdvnpn_base_pins    ITF=PRX
*237 esdvnpn_base_pins_scr    ITF=PRX
*238 esdvnpn_coll_pin    ITF=NRX
*239 esdvnpn_emit_pins    ITF=NRX
*240 esdvnpn_emit_pins_scr    ITF=NRX
*241 sblkndres_gate_pin    ITF=NRX
*242 sblkndres_other_pin    ITF=NRX
*243 esdscr_pd    ITF=PRX
*244 esdscr_nd    ITF=NRX
*245 esdscr_nb    ITF=NRX
*246 esdscr_pb    ITF=PRX
*247 esdrcscr_pd    ITF=PRX
*248 esdrcscr_pb    ITF=PRX
*249 esdrcscr_nd    ITF=NRX
*250 esdrcscr_nb    ITF=NRX
*251 esdnsh_stk_dev_D    ITF=NRX
*252 esdnsh_stk_dev_S    ITF=NRX
*253 esdnpn_sti_base    ITF=PRX
*254 esdnpn_sti_emitter    ITF=NRX
*255 M1_MMWCx    ITF=M1
*256 M2_MMWCx    ITF=M2
*257 C1_MMWCx    ITF=C1
*258 C2_MMWCx    ITF=C2
*259 C3_MMWCx    ITF=C3
*260 nwres_dev    ITF=SUBSTRATE
*261 NW    ITF=SUBSTRATE
*262 nw_rf_6t    ITF=SUBSTRATE
*263 TW    ITF=SUBSTRATE
*264 nw_mmw_6t    ITF=SUBSTRATE
*265 T3_ALL    ITF=SUBSTRATE
*266 psub_bfmoat    ITF=SUBSTRATE
*267 psub_tw    ITF=SUBSTRATE
*268 psub_not_under_tw    ITF=SUBSTRATE
*269 psub_bfmoat_via    ITF=SUBSTRATE
*270 psub    ITF=SUBSTRATE
*271 sub_rf_5t    ITF=SUBSTRATE
*272 sub_rf_6t    ITF=SUBSTRATE
*273 esdscr_pw    ITF=SUBSTRATE
*274 sub_mmw_5t    ITF=SUBSTRATE
*275 sub_mmw_6t    ITF=SUBSTRATE
*276 psub_tw_mmw_6t    ITF=SUBSTRATE
*277 bfmoat_b    ITF=SUBSTRATE
*278 bfmoat_b_temp    ITF=SUBSTRATE
*279 xsub    ITF=SUBSTRATE
*280 xsub_temp    ITF=SUBSTRATE
*281 V1_viaDG_MMWCx    ITF=V1
*282 V1_viaBAR_MMWCx    ITF=V1
*283 AY_viaDG_MMWCx    ITF=AY
*284 AY_viaBAR_MMWCx    ITF=AY
*285 A1_viaDG_MMWCx    ITF=A1
*286 A1_viaBAR_MMWCx    ITF=A1
*287 A2_viaDG_MMWCx    ITF=A2
*288 A2_viaBAR_MMWCx    ITF=A2
*289 ntapvia    ITF=NSTRAP
*290 ttapvia    ITF=PSTRAP
*291 ptapvia    ITF=PSTRAP
*292 ca_nrx_viaDG    ITF=NdiffCont
*293 ca_carec_nrx    ITF=NdiffCont
*294 ca_nrx_sc_viaDG    ITF=NdiffCont
*295 ca_rx_schky    ITF=NdiffCont
*296 ca_rx_rf_schky    ITF=NdiffCont
*297 ca_nrx_rf_viaDG    ITF=NdiffCont
*298 ca_prx_viaDG    ITF=PdiffCont
*299 ca_carec_prx    ITF=PdiffCont
*300 ca_prx_sc_viaDG    ITF=PdiffCont
*301 ca_prx_rf_viaDG    ITF=PdiffCont
*302 ca_res_nrx_opndres_hybrid_viaDG    ITF=NdiffCont
*303 ca_res_nrx_opndres_soi_viaDG    ITF=NdiffCont
*304 ca_res_nrx_opndres_soi_rf_viaDG    ITF=NdiffCont
*305 ca_res_nrx_opndres_soi_mmw_viaDG    ITF=NdiffCont
*306 ca_res_nrx_nwres_viaDG    ITF=NdiffCont
*307 ca_res_prx_oppdres_viaDG    ITF=PdiffCont
*308 ca_vpnp_prx_viaDG    ITF=PdiffCont
*309 ca_vpnp_nrx_viaDG    ITF=NdiffCont
*310 ca_vnpn_prx_viaDG    ITF=PdiffCont
*311 ca_vnpn_nrx_viaDG    ITF=NdiffCont
*312 ca_esdscr_prx_viadg    ITF=PdiffCont
*313 ca_esdlpnp_prx_viadg    ITF=PdiffCont
*314 ca_esdlpnp_nrx_viadg    ITF=NdiffCont
*315 ca_esdlnpn_nrx_viadg    ITF=NdiffCont
*316 ca_esdlnpn_prx_viadg    ITF=PdiffCont
*317 ca_esdscr_nrx_viadg    ITF=NdiffCont
*318 ca_esdrcscr_nrx_viadg    ITF=NdiffCont
*319 ca_esdrcscr_prx_viadg    ITF=PdiffCont
*320 ca_cap_nrx_viaDG    ITF=NdiffCont
*321 ca_cap_prx_viaDG    ITF=PdiffCont
*322 ca_efuse_viaDG    ITF=NdiffCont
*323 ca_cap_nrx_rf_viaDG    ITF=NdiffCont
*324 ca_cap_prx_rf_viaDG    ITF=PdiffCont
*325 CA_fill_layers    ITF=NdiffCont
*326 ca_esdndsx_nrx_viadg    ITF=NdiffCont
*327 ca_esdvnpn_nrx_viadg    ITF=NdiffCont
*328 ca_esdvpnp_nrx_viadg    ITF=NdiffCont
*329 ca_esdnpn_nrx_viadg    ITF=NdiffCont
*330 ca_esdvpnp_prx_viadg    ITF=PdiffCont
*331 ca_esdvnpn_prx_viadg    ITF=PdiffCont
*332 ca_esdndsx_prx_viadg    ITF=PdiffCont
*333 ca_esdnpn_prx_viadg    ITF=PdiffCont
*334 cb_pc_viaDG    ITF=polyCont
*335 cb_carec    ITF=polyCont
*336 M1TCB_CBBAR    ITF=polyCont
*337 M1TCB_ULL_CBBAR    ITF=polyCont
*338 M1TCB_PU_CBBAR    ITF=polyCont
*339 M1TCB_CBDOT    ITF=polyCont
*340 M1TCB_double_CBDOT    ITF=polyCont
*341 cb_pc_rf_viaDG    ITF=polyCont
*342 cb_res_pc_opnpcres_viaDG    ITF=polyCont
*343 cb_res_pc_reopnpcres_viaDG    ITF=polyCont
*344 cb_res_pc_reopnarnpcres_viaDG    ITF=polyCont
*345 cb_res_pc_npcres_viaDG    ITF=polyCont
*346 cb_res_pc_opnpcres_rf_viaDG    ITF=polyCont
*347 cb_res_pc_reopnpcres_rf_viaDG    ITF=polyCont
*348 cb_res_pc_reopnarnpcres_rf_viaDG    ITF=polyCont
*349 cb_res_pc_npcres_rf_viaDG    ITF=polyCont
*350 cb_cap_pc_viaDG    ITF=polyCont
*351 cb_ptype_cnrx_L    ITF=pgateCont
*352 cb_ptype_cnrx_T    ITF=pgateCont
*353 cb_ptype_cnrx_U    ITF=pgateCont
*354 cb_ntype_cnrx_L    ITF=ngateCont
*355 cb_ntype_cnrx_T    ITF=ngateCont
*356 cb_ntype_cnrx_U    ITF=ngateCont
*357 cb_ntype_cnrx_filler    ITF=ngateCont
*358 cb_ptype_cnrx_filler    ITF=pgateCont
*359 cb_cap_pc_rf_viaDG    ITF=polyCont
*360 V1_viaDG    ITF=V1
*361 V1_vncap_viaDG    ITF=V1
*362 V1_vncap_viaBAR    ITF=V1
*363 V1_fill_layers    ITF=V1
*364 V1_viaBAR    ITF=V1
*365 AY_viaDG    ITF=AY
*366 AY_viaBAR    ITF=AY
*367 AY_vncap_viaDG    ITF=AY
*368 AY_vncap_viaBAR    ITF=AY
*369 AY_fill_layers    ITF=AY
*370 A1_viaDG    ITF=A1
*371 A1_viaBAR    ITF=A1
*372 A1_vncap_viaDG    ITF=A1
*373 A1_vncap_viaBAR    ITF=A1
*374 A1_fill_layers    ITF=A1
*375 A2_viaDG    ITF=A2
*376 A2_viaBAR    ITF=A2
*377 A2_vncap_viaDG    ITF=A2
*378 A2_vncap_viaBAR    ITF=A2
*379 A2_fill_layers    ITF=A2
*380 A3_viaDG    ITF=A3
*381 A3_viaBAR    ITF=A3
*382 A3_vncap_viaDG    ITF=A3
*383 A3_vncap_viaBAR    ITF=A3
*384 A3_fill_layers    ITF=A3
*385 A4_viaDG    ITF=A4
*386 A4_viaBAR    ITF=A4
*387 A4_vncap_viaDG    ITF=A4
*388 A4_vncap_viaBAR    ITF=A4
*389 A4_fill_layers    ITF=A4
*390 A5_viaDG    ITF=A5
*391 A5_viaBAR    ITF=A5
*392 A5_vncap_viaDG    ITF=A5
*393 A5_vncap_viaBAR    ITF=A5
*394 A5_fill_layers    ITF=A5
*395 YX_viaDG    ITF=YX
*396 YX_viaBAR    ITF=YX
*397 YX_fill_layers    ITF=YX
*398 XA_viaDG    ITF=XA
*399 XA_viaBAR    ITF=XA
*400 XA_fill_layers    ITF=XA
*401 VV_ind    ITF=VV
*402 VV_viaDG    ITF=VV
*403 VV_viaBAR    ITF=VV
*404 VV_fill_layers    ITF=VV
*443 vncap_C1C2_10v_dev    ITF=DUMMY_GRD_LAYER
*444 vncap_C1C2_1v8_dev    ITF=DUMMY_GRD_LAYER
*445 vncap_C1C2_3v3_dev    ITF=DUMMY_GRD_LAYER
*446 vncap_C1C2_4v_dev    ITF=DUMMY_GRD_LAYER
*447 vncap_C1C2_5v_dev    ITF=DUMMY_GRD_LAYER
*448 vncap_C1C2_7v_dev    ITF=DUMMY_GRD_LAYER
*449 vncap_C1C2_dev    ITF=DUMMY_GRD_LAYER
*450 vncap_C1C3_10v_dev    ITF=DUMMY_GRD_LAYER
*451 vncap_C1C3_1v8_dev    ITF=DUMMY_GRD_LAYER
*452 vncap_C1C3_3v3_dev    ITF=DUMMY_GRD_LAYER
*453 vncap_C1C3_4v_dev    ITF=DUMMY_GRD_LAYER
*454 vncap_C1C3_5v_dev    ITF=DUMMY_GRD_LAYER
*455 vncap_C1C3_7v_dev    ITF=DUMMY_GRD_LAYER
*456 vncap_C1C3_dev    ITF=DUMMY_GRD_LAYER
*457 vncap_C1C4_10v_dev    ITF=DUMMY_GRD_LAYER
*458 vncap_C1C4_1v8_dev    ITF=DUMMY_GRD_LAYER
*459 vncap_C1C4_3v3_dev    ITF=DUMMY_GRD_LAYER
*460 vncap_C1C4_4v_dev    ITF=DUMMY_GRD_LAYER
*461 vncap_C1C4_5v_dev    ITF=DUMMY_GRD_LAYER
*462 vncap_C1C4_7v_dev    ITF=DUMMY_GRD_LAYER
*463 vncap_C1C4_dev    ITF=DUMMY_GRD_LAYER
*464 vncap_C1C5_10v_dev    ITF=DUMMY_GRD_LAYER
*465 vncap_C1C5_1v8_dev    ITF=DUMMY_GRD_LAYER
*466 vncap_C1C5_3v3_dev    ITF=DUMMY_GRD_LAYER
*467 vncap_C1C5_4v_dev    ITF=DUMMY_GRD_LAYER
*468 vncap_C1C5_5v_dev    ITF=DUMMY_GRD_LAYER
*469 vncap_C1C5_7v_dev    ITF=DUMMY_GRD_LAYER
*470 vncap_C1C5_dev    ITF=DUMMY_GRD_LAYER
*471 vncap_C1C6_10v_dev    ITF=DUMMY_GRD_LAYER
*472 vncap_C1C6_1v8_dev    ITF=DUMMY_GRD_LAYER
*473 vncap_C1C6_3v3_dev    ITF=DUMMY_GRD_LAYER
*474 vncap_C1C6_4v_dev    ITF=DUMMY_GRD_LAYER
*475 vncap_C1C6_5v_dev    ITF=DUMMY_GRD_LAYER
*476 vncap_C1C6_7v_dev    ITF=DUMMY_GRD_LAYER
*477 vncap_C1C6_dev    ITF=DUMMY_GRD_LAYER
*478 vncap_C2C3_10v_dev    ITF=DUMMY_GRD_LAYER
*479 vncap_C2C3_1v8_dev    ITF=DUMMY_GRD_LAYER
*480 vncap_C2C3_3v3_dev    ITF=DUMMY_GRD_LAYER
*481 vncap_C2C3_4v_dev    ITF=DUMMY_GRD_LAYER
*482 vncap_C2C3_5v_dev    ITF=DUMMY_GRD_LAYER
*483 vncap_C2C3_7v_dev    ITF=DUMMY_GRD_LAYER
*484 vncap_C2C3_dev    ITF=DUMMY_GRD_LAYER
*485 vncap_C2C4_10v_dev    ITF=DUMMY_GRD_LAYER
*486 vncap_C2C4_1v8_dev    ITF=DUMMY_GRD_LAYER
*487 vncap_C2C4_3v3_dev    ITF=DUMMY_GRD_LAYER
*488 vncap_C2C4_4v_dev    ITF=DUMMY_GRD_LAYER
*489 vncap_C2C4_5v_dev    ITF=DUMMY_GRD_LAYER
*490 vncap_C2C4_7v_dev    ITF=DUMMY_GRD_LAYER
*491 vncap_C2C4_dev    ITF=DUMMY_GRD_LAYER
*492 vncap_C2C5_10v_dev    ITF=DUMMY_GRD_LAYER
*493 vncap_C2C5_1v8_dev    ITF=DUMMY_GRD_LAYER
*494 vncap_C2C5_3v3_dev    ITF=DUMMY_GRD_LAYER
*495 vncap_C2C5_4v_dev    ITF=DUMMY_GRD_LAYER
*496 vncap_C2C5_5v_dev    ITF=DUMMY_GRD_LAYER
*497 vncap_C2C5_7v_dev    ITF=DUMMY_GRD_LAYER
*498 vncap_C2C5_dev    ITF=DUMMY_GRD_LAYER
*499 vncap_C2C6_10v_dev    ITF=DUMMY_GRD_LAYER
*500 vncap_C2C6_1v8_dev    ITF=DUMMY_GRD_LAYER
*501 vncap_C2C6_3v3_dev    ITF=DUMMY_GRD_LAYER
*502 vncap_C2C6_4v_dev    ITF=DUMMY_GRD_LAYER
*503 vncap_C2C6_5v_dev    ITF=DUMMY_GRD_LAYER
*504 vncap_C2C6_7v_dev    ITF=DUMMY_GRD_LAYER
*505 vncap_C2C6_dev    ITF=DUMMY_GRD_LAYER
*506 vncap_C3C4_10v_dev    ITF=DUMMY_GRD_LAYER
*507 vncap_C3C4_1v8_dev    ITF=DUMMY_GRD_LAYER
*508 vncap_C3C4_3v3_dev    ITF=DUMMY_GRD_LAYER
*509 vncap_C3C4_4v_dev    ITF=DUMMY_GRD_LAYER
*510 vncap_C3C4_5v_dev    ITF=DUMMY_GRD_LAYER
*511 vncap_C3C4_7v_dev    ITF=DUMMY_GRD_LAYER
*512 vncap_C3C4_dev    ITF=DUMMY_GRD_LAYER
*513 vncap_C3C5_10v_dev    ITF=DUMMY_GRD_LAYER
*514 vncap_C3C5_1v8_dev    ITF=DUMMY_GRD_LAYER
*515 vncap_C3C5_3v3_dev    ITF=DUMMY_GRD_LAYER
*516 vncap_C3C5_4v_dev    ITF=DUMMY_GRD_LAYER
*517 vncap_C3C5_5v_dev    ITF=DUMMY_GRD_LAYER
*518 vncap_C3C5_7v_dev    ITF=DUMMY_GRD_LAYER
*519 vncap_C3C5_dev    ITF=DUMMY_GRD_LAYER
*520 vncap_C3C6_10v_dev    ITF=DUMMY_GRD_LAYER
*521 vncap_C3C6_1v8_dev    ITF=DUMMY_GRD_LAYER
*522 vncap_C3C6_3v3_dev    ITF=DUMMY_GRD_LAYER
*523 vncap_C3C6_4v_dev    ITF=DUMMY_GRD_LAYER
*524 vncap_C3C6_5v_dev    ITF=DUMMY_GRD_LAYER
*525 vncap_C3C6_7v_dev    ITF=DUMMY_GRD_LAYER
*526 vncap_C3C6_dev    ITF=DUMMY_GRD_LAYER
*527 vncap_C4C5_10v_dev    ITF=DUMMY_GRD_LAYER
*528 vncap_C4C5_1v8_dev    ITF=DUMMY_GRD_LAYER
*529 vncap_C4C5_3v3_dev    ITF=DUMMY_GRD_LAYER
*530 vncap_C4C5_4v_dev    ITF=DUMMY_GRD_LAYER
*531 vncap_C4C5_5v_dev    ITF=DUMMY_GRD_LAYER
*532 vncap_C4C5_7v_dev    ITF=DUMMY_GRD_LAYER
*533 vncap_C4C5_dev    ITF=DUMMY_GRD_LAYER
*534 vncap_C4C6_10v_dev    ITF=DUMMY_GRD_LAYER
*535 vncap_C4C6_1v8_dev    ITF=DUMMY_GRD_LAYER
*536 vncap_C4C6_3v3_dev    ITF=DUMMY_GRD_LAYER
*537 vncap_C4C6_4v_dev    ITF=DUMMY_GRD_LAYER
*538 vncap_C4C6_5v_dev    ITF=DUMMY_GRD_LAYER
*539 vncap_C4C6_7v_dev    ITF=DUMMY_GRD_LAYER
*540 vncap_C4C6_dev    ITF=DUMMY_GRD_LAYER
*541 vncap_C5C6_10v_dev    ITF=DUMMY_GRD_LAYER
*542 vncap_C5C6_1v8_dev    ITF=DUMMY_GRD_LAYER
*543 vncap_C5C6_3v3_dev    ITF=DUMMY_GRD_LAYER
*544 vncap_C5C6_4v_dev    ITF=DUMMY_GRD_LAYER
*545 vncap_C5C6_5v_dev    ITF=DUMMY_GRD_LAYER
*546 vncap_C5C6_7v_dev    ITF=DUMMY_GRD_LAYER
*547 vncap_C5C6_dev    ITF=DUMMY_GRD_LAYER
*548 vncap_M1C1_10v_dev    ITF=DUMMY_GRD_LAYER
*549 vncap_M1C1_1v8_dev    ITF=DUMMY_GRD_LAYER
*550 vncap_M1C1_3v3_dev    ITF=DUMMY_GRD_LAYER
*551 vncap_M1C1_4v_dev    ITF=DUMMY_GRD_LAYER
*552 vncap_M1C1_5v_dev    ITF=DUMMY_GRD_LAYER
*553 vncap_M1C1_7v_dev    ITF=DUMMY_GRD_LAYER
*554 vncap_M1C1_dev    ITF=DUMMY_GRD_LAYER
*555 vncap_M1C2_10v_dev    ITF=DUMMY_GRD_LAYER
*556 vncap_M1C2_1v8_dev    ITF=DUMMY_GRD_LAYER
*557 vncap_M1C2_3v3_dev    ITF=DUMMY_GRD_LAYER
*558 vncap_M1C2_4v_dev    ITF=DUMMY_GRD_LAYER
*559 vncap_M1C2_5v_dev    ITF=DUMMY_GRD_LAYER
*560 vncap_M1C2_7v_dev    ITF=DUMMY_GRD_LAYER
*561 vncap_M1C2_dev    ITF=DUMMY_GRD_LAYER
*562 vncap_M1C3_10v_dev    ITF=DUMMY_GRD_LAYER
*563 vncap_M1C3_1v8_dev    ITF=DUMMY_GRD_LAYER
*564 vncap_M1C3_3v3_dev    ITF=DUMMY_GRD_LAYER
*565 vncap_M1C3_4v_dev    ITF=DUMMY_GRD_LAYER
*566 vncap_M1C3_5v_dev    ITF=DUMMY_GRD_LAYER
*567 vncap_M1C3_7v_dev    ITF=DUMMY_GRD_LAYER
*568 vncap_M1C3_dev    ITF=DUMMY_GRD_LAYER
*569 vncap_M1C4_10v_dev    ITF=DUMMY_GRD_LAYER
*570 vncap_M1C4_1v8_dev    ITF=DUMMY_GRD_LAYER
*571 vncap_M1C4_3v3_dev    ITF=DUMMY_GRD_LAYER
*572 vncap_M1C4_4v_dev    ITF=DUMMY_GRD_LAYER
*573 vncap_M1C4_5v_dev    ITF=DUMMY_GRD_LAYER
*574 vncap_M1C4_7v_dev    ITF=DUMMY_GRD_LAYER
*575 vncap_M1C4_dev    ITF=DUMMY_GRD_LAYER
*576 vncap_M1C5_10v_dev    ITF=DUMMY_GRD_LAYER
*577 vncap_M1C5_1v8_dev    ITF=DUMMY_GRD_LAYER
*578 vncap_M1C5_3v3_dev    ITF=DUMMY_GRD_LAYER
*579 vncap_M1C5_4v_dev    ITF=DUMMY_GRD_LAYER
*580 vncap_M1C5_5v_dev    ITF=DUMMY_GRD_LAYER
*581 vncap_M1C5_7v_dev    ITF=DUMMY_GRD_LAYER
*582 vncap_M1C5_dev    ITF=DUMMY_GRD_LAYER
*583 vncap_M1C6_10v_dev    ITF=DUMMY_GRD_LAYER
*584 vncap_M1C6_1v8_dev    ITF=DUMMY_GRD_LAYER
*585 vncap_M1C6_3v3_dev    ITF=DUMMY_GRD_LAYER
*586 vncap_M1C6_4v_dev    ITF=DUMMY_GRD_LAYER
*587 vncap_M1C6_5v_dev    ITF=DUMMY_GRD_LAYER
*588 vncap_M1C6_7v_dev    ITF=DUMMY_GRD_LAYER
*589 vncap_M1C6_dev    ITF=DUMMY_GRD_LAYER
*590 vncap_M1M2_10v_dev    ITF=DUMMY_GRD_LAYER
*591 vncap_M1M2_1v8_dev    ITF=DUMMY_GRD_LAYER
*592 vncap_M1M2_3v3_dev    ITF=DUMMY_GRD_LAYER
*593 vncap_M1M2_4v_dev    ITF=DUMMY_GRD_LAYER
*594 vncap_M1M2_5v_dev    ITF=DUMMY_GRD_LAYER
*595 vncap_M1M2_7v_dev    ITF=DUMMY_GRD_LAYER
*596 vncap_M1M2_dev    ITF=DUMMY_GRD_LAYER
*597 vncap_M2C1_10v_dev    ITF=DUMMY_GRD_LAYER
*598 vncap_M2C1_1v8_dev    ITF=DUMMY_GRD_LAYER
*599 vncap_M2C1_3v3_dev    ITF=DUMMY_GRD_LAYER
*600 vncap_M2C1_4v_dev    ITF=DUMMY_GRD_LAYER
*601 vncap_M2C1_5v_dev    ITF=DUMMY_GRD_LAYER
*602 vncap_M2C1_7v_dev    ITF=DUMMY_GRD_LAYER
*603 vncap_M2C1_dev    ITF=DUMMY_GRD_LAYER
*604 vncap_M2C2_10v_dev    ITF=DUMMY_GRD_LAYER
*605 vncap_M2C2_1v8_dev    ITF=DUMMY_GRD_LAYER
*606 vncap_M2C2_3v3_dev    ITF=DUMMY_GRD_LAYER
*607 vncap_M2C2_4v_dev    ITF=DUMMY_GRD_LAYER
*608 vncap_M2C2_5v_dev    ITF=DUMMY_GRD_LAYER
*609 vncap_M2C2_7v_dev    ITF=DUMMY_GRD_LAYER
*610 vncap_M2C2_dev    ITF=DUMMY_GRD_LAYER
*611 vncap_M2C3_10v_dev    ITF=DUMMY_GRD_LAYER
*612 vncap_M2C3_1v8_dev    ITF=DUMMY_GRD_LAYER
*613 vncap_M2C3_3v3_dev    ITF=DUMMY_GRD_LAYER
*614 vncap_M2C3_4v_dev    ITF=DUMMY_GRD_LAYER
*615 vncap_M2C3_5v_dev    ITF=DUMMY_GRD_LAYER
*616 vncap_M2C3_7v_dev    ITF=DUMMY_GRD_LAYER
*617 vncap_M2C3_dev    ITF=DUMMY_GRD_LAYER
*618 vncap_M2C4_10v_dev    ITF=DUMMY_GRD_LAYER
*619 vncap_M2C4_1v8_dev    ITF=DUMMY_GRD_LAYER
*620 vncap_M2C4_3v3_dev    ITF=DUMMY_GRD_LAYER
*621 vncap_M2C4_4v_dev    ITF=DUMMY_GRD_LAYER
*622 vncap_M2C4_5v_dev    ITF=DUMMY_GRD_LAYER
*623 vncap_M2C4_7v_dev    ITF=DUMMY_GRD_LAYER
*624 vncap_M2C4_dev    ITF=DUMMY_GRD_LAYER
*625 vncap_M2C5_10v_dev    ITF=DUMMY_GRD_LAYER
*626 vncap_M2C5_1v8_dev    ITF=DUMMY_GRD_LAYER
*627 vncap_M2C5_3v3_dev    ITF=DUMMY_GRD_LAYER
*628 vncap_M2C5_4v_dev    ITF=DUMMY_GRD_LAYER
*629 vncap_M2C5_5v_dev    ITF=DUMMY_GRD_LAYER
*630 vncap_M2C5_7v_dev    ITF=DUMMY_GRD_LAYER
*631 vncap_M2C5_dev    ITF=DUMMY_GRD_LAYER
*632 vncap_M2C6_10v_dev    ITF=DUMMY_GRD_LAYER
*633 vncap_M2C6_1v8_dev    ITF=DUMMY_GRD_LAYER
*634 vncap_M2C6_3v3_dev    ITF=DUMMY_GRD_LAYER
*635 vncap_M2C6_4v_dev    ITF=DUMMY_GRD_LAYER
*636 vncap_M2C6_5v_dev    ITF=DUMMY_GRD_LAYER
*637 vncap_M2C6_7v_dev    ITF=DUMMY_GRD_LAYER
*638 vncap_M2C6_dev    ITF=DUMMY_GRD_LAYER

*|NET Z 0.000523277PF
*|P (Z O 0 0.4660 0.5900) // $llx=0.4660 $lly=0.5900 $urx=0.4660 $ury=0.5900 $lvl=100
*|I (M10:DRN M10 DRN B 0 0.1140 0.7120) // $llx=0.1140 $lly=0.7120 $urx=0.1140 $ury=0.7120 $lvl=180
*|I (M11:SRC M11 SRC B 0 0.1980 0.7120) // $llx=0.1980 $lly=0.7120 $urx=0.1980 $ury=0.7120 $lvl=180
*|I (M12:DRN M12 DRN B 0 0.3220 0.7120) // $llx=0.3220 $lly=0.7120 $urx=0.3220 $ury=0.7120 $lvl=180
*|I (M13:SRC M13 SRC B 0 0.4060 0.7120) // $llx=0.4060 $lly=0.7120 $urx=0.4060 $ury=0.7120 $lvl=180
*|I (M14:DRN M14 DRN B 0 0.5300 0.7120) // $llx=0.5300 $lly=0.7120 $urx=0.5300 $ury=0.7120 $lvl=180
*|I (M15:SRC M15 SRC B 0 0.6140 0.7120) // $llx=0.6140 $lly=0.7120 $urx=0.6140 $ury=0.7120 $lvl=180
*|I (M16:DRN M16 DRN B 0 0.7380 0.7120) // $llx=0.7380 $lly=0.7120 $urx=0.7380 $ury=0.7120 $lvl=180
*|I (M17:SRC M17 SRC B 0 0.8220 0.7120) // $llx=0.8220 $lly=0.7120 $urx=0.8220 $ury=0.7120 $lvl=180
*|I (M2:DRN M2 DRN B 0 0.1140 0.2120) // $llx=0.1140 $lly=0.2120 $urx=0.1140 $ury=0.2120 $lvl=174
*|I (M3:SRC M3 SRC B 0 0.1980 0.2120) // $llx=0.1980 $lly=0.2120 $urx=0.1980 $ury=0.2120 $lvl=174
*|I (M4:DRN M4 DRN B 0 0.3220 0.2120) // $llx=0.3220 $lly=0.2120 $urx=0.3220 $ury=0.2120 $lvl=174
*|I (M5:SRC M5 SRC B 0 0.4060 0.2120) // $llx=0.4060 $lly=0.2120 $urx=0.4060 $ury=0.2120 $lvl=174
*|I (M6:DRN M6 DRN B 0 0.5300 0.2120) // $llx=0.5300 $lly=0.2120 $urx=0.5300 $ury=0.2120 $lvl=174
*|I (M7:SRC M7 SRC B 0 0.6140 0.2120) // $llx=0.6140 $lly=0.2120 $urx=0.6140 $ury=0.2120 $lvl=174
*|I (M8:DRN M8 DRN B 0 0.7380 0.2120) // $llx=0.7380 $lly=0.2120 $urx=0.7380 $ury=0.2120 $lvl=174
*|I (M9:SRC M9 SRC B 0 0.8220 0.2120) // $llx=0.8220 $lly=0.2120 $urx=0.8220 $ury=0.2120 $lvl=174
*|S (Z:18 0.1560 0.2100) // $llx=0.1410 $lly=0.1800 $urx=0.1710 $ury=0.2400 $lvl=100
*|S (Z:19 0.3640 0.2100) // $llx=0.3490 $lly=0.1800 $urx=0.3790 $ury=0.2400 $lvl=100
*|S (Z:20 0.5720 0.2100) // $llx=0.5570 $lly=0.1800 $urx=0.5870 $ury=0.2400 $lvl=100
*|S (Z:21 0.7800 0.2100) // $llx=0.7650 $lly=0.1800 $urx=0.7950 $ury=0.2400 $lvl=100
*|S (Z:22 0.1560 0.5890) // $llx=0.1410 $lly=0.5590 $urx=0.1710 $ury=0.6190 $lvl=100
*|S (Z:23 0.3640 0.5890) // $llx=0.3490 $lly=0.5590 $urx=0.3790 $ury=0.6190 $lvl=100
*|S (Z:24 0.5720 0.5890) // $llx=0.5570 $lly=0.5590 $urx=0.5870 $ury=0.6190 $lvl=100
*|S (Z:25 0.7800 0.5890) // $llx=0.7650 $lly=0.5590 $urx=0.7950 $ury=0.6190 $lvl=100
R1_1 Z:24 Z:25 resStar R=1.6607 TC1=0.0024086921  $l=0.2080 $w=0.0600 $lvl=100
R1_2 Z:22 Z:23 resStar R=1.6607 TC1=0.0024086921  $l=0.2080 $w=0.0600 $lvl=100
R1_3 Z:21 Z:25 resStar R=4.30284 TC1=0.0024241263  $l=0.3790 $w=0.0420 $lvl=100
R1_4 Z:20 Z:21 resStar R=1.45939 TC1=0.0024736428  $l=0.2080 $w=0.0600 $lvl=100
R1_5 Z:19 Z:20 resStar R=1.45939 TC1=0.0024736428  $l=0.2080 $w=0.0600 $lvl=100
R1_6 Z:18 Z:19 resStar R=1.45939 TC1=0.0024736428  $l=0.2080 $w=0.0600 $lvl=100
R1_7 Z:18 Z:22 resStar R=4.47387 TC1=0.0024027608  $l=0.3790 $w=0.0420 $lvl=100
R1_8 M9:SRC Z:21 resStar R=45.0 TC1=0.0022912985  $a=0.00180000 $lvl=292
R1_9 M8:DRN M9:SRC 0.001 $l=0.0840 $w=10.0000 $lvl=174
R1_10 M7:SRC Z:20 resStar R=45.0 TC1=0.0022912985  $a=0.00180000 $lvl=292
R1_11 M6:DRN M7:SRC 0.001 $l=0.0840 $w=10.0000 $lvl=174
R1_12 M5:SRC Z:19 resStar R=45.0 TC1=0.0022912985  $a=0.00180000 $lvl=292
R1_13 M4:DRN M5:SRC 0.001 $l=0.0840 $w=10.0000 $lvl=174
R1_14 M3:SRC Z:18 resStar R=45.0 TC1=0.0022912985  $a=0.00180000 $lvl=292
R1_15 M2:DRN M3:SRC 0.001 $l=0.0840 $w=10.0000 $lvl=174
R1_16 M17:SRC Z:25 resStar R=50.0 TC1=0.0022912980  $a=0.00180000 $lvl=298
R1_17 M16:DRN M17:SRC 0.001 $l=0.0840 $w=10.0000 $lvl=180
R1_18 M15:SRC Z:24 resStar R=50.0 TC1=0.0022912980  $a=0.00180000 $lvl=298
R1_19 M14:DRN M15:SRC 0.001 $l=0.0840 $w=10.0000 $lvl=180
R1_20 M13:SRC Z:23 resStar R=50.0 TC1=0.0022912980  $a=0.00180000 $lvl=298
R1_21 M12:DRN M13:SRC 0.001 $l=0.0840 $w=10.0000 $lvl=180
R1_22 M11:SRC Z:22 resStar R=50.0 TC1=0.0022912980  $a=0.00180000 $lvl=298
R1_23 M10:DRN M11:SRC 0.001 $l=0.0840 $w=10.0000 $lvl=180
R1_24 Z Z:24 resStar R=0.846317 TC1=0.0024086924  $l=0.1060 $w=0.0600 $lvl=100
R1_25 Z Z:23 resStar R=0.814381 TC1=0.0024086924  $l=0.1020 $w=0.0600 $lvl=100

*|NET A 0.000592331PF
*|P (A O 0 0.4780 0.4110) // $llx=0.4780 $lly=0.4110 $urx=0.4780 $ury=0.4110 $lvl=100
*|I (M10:GATE M10 GATE I 0 0.1040 0.7120) // $llx=0.1040 $lly=0.7120 $urx=0.1040 $ury=0.7120 $lvl=126
*|I (M11:GATE M11 GATE I 0 0.2080 0.7120) // $llx=0.2080 $lly=0.7120 $urx=0.2080 $ury=0.7120 $lvl=126
*|I (M12:GATE M12 GATE I 0 0.3120 0.7120) // $llx=0.3120 $lly=0.7120 $urx=0.3120 $ury=0.7120 $lvl=126
*|I (M13:GATE M13 GATE I 0 0.4160 0.7120) // $llx=0.4160 $lly=0.7120 $urx=0.4160 $ury=0.7120 $lvl=126
*|I (M14:GATE M14 GATE I 0 0.5200 0.7120) // $llx=0.5200 $lly=0.7120 $urx=0.5200 $ury=0.7120 $lvl=126
*|I (M15:GATE M15 GATE I 0 0.6240 0.7120) // $llx=0.6240 $lly=0.7120 $urx=0.6240 $ury=0.7120 $lvl=126
*|I (M16:GATE M16 GATE I 0 0.7280 0.7120) // $llx=0.7280 $lly=0.7120 $urx=0.7280 $ury=0.7120 $lvl=126
*|I (M17:GATE M17 GATE I 0 0.8320 0.7120) // $llx=0.8320 $lly=0.7120 $urx=0.8320 $ury=0.7120 $lvl=126
*|I (M2:GATE M2 GATE I 0 0.1040 0.2120) // $llx=0.1040 $lly=0.2120 $urx=0.1040 $ury=0.2120 $lvl=122
*|I (M3:GATE M3 GATE I 0 0.2080 0.2120) // $llx=0.2080 $lly=0.2120 $urx=0.2080 $ury=0.2120 $lvl=122
*|I (M4:GATE M4 GATE I 0 0.3120 0.2120) // $llx=0.3120 $lly=0.2120 $urx=0.3120 $ury=0.2120 $lvl=122
*|I (M5:GATE M5 GATE I 0 0.4160 0.2120) // $llx=0.4160 $lly=0.2120 $urx=0.4160 $ury=0.2120 $lvl=122
*|I (M6:GATE M6 GATE I 0 0.5200 0.2120) // $llx=0.5200 $lly=0.2120 $urx=0.5200 $ury=0.2120 $lvl=122
*|I (M7:GATE M7 GATE I 0 0.6240 0.2120) // $llx=0.6240 $lly=0.2120 $urx=0.6240 $ury=0.2120 $lvl=122
*|I (M8:GATE M8 GATE I 0 0.7280 0.2120) // $llx=0.7280 $lly=0.2120 $urx=0.7280 $ury=0.2120 $lvl=122
*|I (M9:GATE M9 GATE I 0 0.8320 0.2120) // $llx=0.8320 $lly=0.2120 $urx=0.8320 $ury=0.2120 $lvl=122
*|S (A:18 0.3120 0.4440) // $llx=0.2920 $lly=0.4040 $urx=0.3320 $ury=0.4840 $lvl=100
*|S (A:19 0.3120 0.4440) // $llx=0.2920 $lly=0.4240 $urx=0.3320 $ury=0.4640 $lvl=119
*|S (A:20 0.4160 0.4440) // $llx=0.3960 $lly=0.4040 $urx=0.4360 $ury=0.4840 $lvl=100
*|S (A:21 0.4160 0.4440) // $llx=0.3960 $lly=0.4240 $urx=0.4360 $ury=0.4640 $lvl=119
*|S (A:22 0.5200 0.4440) // $llx=0.5000 $lly=0.4040 $urx=0.5400 $ury=0.4840 $lvl=100
*|S (A:23 0.5200 0.4440) // $llx=0.5000 $lly=0.4240 $urx=0.5400 $ury=0.4640 $lvl=119
*|S (A:24 0.6240 0.4440) // $llx=0.6040 $lly=0.4040 $urx=0.6440 $ury=0.4840 $lvl=100
*|S (A:25 0.6240 0.4440) // $llx=0.6040 $lly=0.4240 $urx=0.6440 $ury=0.4640 $lvl=119
*|S (A:26 0.1120 0.4440) // $llx=0.1000 $lly=0.4040 $urx=0.1240 $ury=0.4840 $lvl=100
*|S (A:27 0.1120 0.4440) // $llx=0.0940 $lly=0.4190 $urx=0.1240 $ury=0.4690 $lvl=119
*|S (A:28 0.7280 0.4440) // $llx=0.7180 $lly=0.4040 $urx=0.7380 $ury=0.4840 $lvl=100
*|S (A:29 0.7280 0.4440) // $llx=0.7180 $lly=0.4190 $urx=0.7380 $ury=0.4690 $lvl=119
*|S (A:30 0.2080 0.4440) // $llx=0.1980 $lly=0.4190 $urx=0.2180 $ury=0.4690 $lvl=119
*|S (A:31 0.8240 0.4440) // $llx=0.8120 $lly=0.4190 $urx=0.8420 $ury=0.4690 $lvl=119
*|S (A:32 0.1040 0.5140) // $llx=0.0940 $lly=0.5140 $urx=0.1140 $ury=0.5140 $lvl=126
*|S (A:33 0.1040 0.9100) // $llx=0.0940 $lly=0.9100 $urx=0.1140 $ury=0.9100 $lvl=126
*|S (A:34 0.2080 0.5140) // $llx=0.1980 $lly=0.5140 $urx=0.2180 $ury=0.5140 $lvl=126
*|S (A:35 0.2080 0.9100) // $llx=0.1980 $lly=0.9100 $urx=0.2180 $ury=0.9100 $lvl=126
*|S (A:36 0.3120 0.5140) // $llx=0.3020 $lly=0.5140 $urx=0.3220 $ury=0.5140 $lvl=126
*|S (A:37 0.3120 0.9100) // $llx=0.3020 $lly=0.9100 $urx=0.3220 $ury=0.9100 $lvl=126
*|S (A:38 0.4160 0.5140) // $llx=0.4060 $lly=0.5140 $urx=0.4260 $ury=0.5140 $lvl=126
*|S (A:39 0.4160 0.9100) // $llx=0.4060 $lly=0.9100 $urx=0.4260 $ury=0.9100 $lvl=126